%chk=c2h6_012.chk
%mem=100MB

#p b3lyp/6-31+g(d,p) force nosym

c2h6 molecule

0 1
C1
C2 1 d1
H3 1 d2 2 a1
H4 1 d3 2 a2 3 t1
H5 1 d4 2 a3 3 t2
H6 2 d5 1 a4 3 t3
H7 2 d6 1 a5 6 t4
H8 2 d7 1 a6 6 t5


d1=1.53480909623583450e+00
a1=1.78568025121318755e+02
t1=1.19676326556254850e+02
d2=1.20779008888467843e+00
a2=1.09669878137543648e+02
t2=-1.78674498304171635e+02
d3=1.01250630451881785e+00
d4=1.14595952215749142e+00
a3=1.08641313115508765e+02
d5=1.08567500766010006e+00
a4=1.08709220390688557e+02
t3=1.79997686976788543e+02
d6=1.10161117406588693e+00
a5=1.08709960151802946e+02
t4=1.20057632088726791e+02
d7=1.37578428704300082e+00
a6=1.78680036460221345e+02
t5=-1.19999998256156204e+02
