%chk=c2h6_027.chk
%mem=100MB

#p b3lyp/6-31+g(d,p) force nosym

c2h6 molecule

0 1
C1
C2 1 d1
H3 1 d2 2 a1
H4 1 d3 2 a2 3 t1
H5 1 d4 2 a3 3 t2
H6 2 d5 1 a4 3 t3
H7 2 d6 1 a5 6 t4
H8 2 d7 1 a6 6 t5


d1=1.73837894053784559e+00
a1=1.50016530169270425e+02
t1=9.86964439512822480e+01
d2=1.09417478669921486e+00
a2=8.82480338944778993e+01
t2=-1.57569111169024495e+02
d3=1.09173142639510612e+00
d4=1.08422452096078747e+00
a3=8.60404835381653470e+01
d5=1.08762046090396036e+00
a4=9.03701432747836151e+01
t3=1.79829337366008815e+02
d6=1.09283189448884954e+00
a5=9.05602055315496557e+01
t4=1.22389789543425408e+02
d7=1.10196149330714288e+00
a6=1.56032106812938451e+02
t5=-1.20000481702410241e+02
