%chk=c2h6_022.chk
%mem=100MB

#p b3lyp/6-31+g(d,p) force nosym

c2h6 molecule

0 1
C1
C2 1 d1
H3 1 d2 2 a1
H4 1 d3 2 a2 3 t1
H5 1 d4 2 a3 3 t2
H6 2 d5 1 a4 3 t3
H7 2 d6 1 a5 6 t4
H8 2 d7 1 a6 6 t5


d1=1.48137185841929830e+00
a1=1.70542962625410667e+02
t1=1.13776657937290054e+02
d2=1.17505211357866823e+00
a2=1.03647707970844550e+02
t2=-1.72740683516494528e+02
d3=1.36751208316748785e+00
d4=1.10067016869557222e+00
a3=1.02275602845415818e+02
d5=1.09746709684096189e+00
a4=1.03548429699227526e+02
t3=1.79950582545534445e+02
d6=1.15463556150136526e+00
a5=1.03601079102089173e+02
t4=1.20724491055323099e+02
d7=1.04338174600690925e+00
a6=1.72327468409543457e+02
t5=-1.20000083581302036e+02
