%chk=c2h6_038.chk
%mem=100MB

#p b3lyp/6-31+g(d,p) force nosym

c2h6 molecule

0 1
C1
C2 1 d1
H3 1 d2 2 a1
H4 1 d3 2 a2 3 t1
H5 1 d4 2 a3 3 t2
H6 2 d5 1 a4 3 t3
H7 2 d6 1 a5 6 t4
H8 2 d7 1 a6 6 t5


d1=1.43365514376584269e+00
a1=1.43103530645112130e+02
t1=1.03763957541654349e+02
d2=1.09157360867864095e+00
a2=9.23143843904830561e+01
t2=-1.55797178466519455e+02
d3=1.03028091776451780e+00
d4=1.08531931581703067e+00
a3=1.05407188510363213e+02
d5=1.08843661724108420e+00
a4=9.71791824290743023e+01
t3=1.79564403163941989e+02
d6=1.10035352606644143e+00
a5=1.00621420816587431e+02
t4=1.11929952991114632e+02
d7=1.07225664234908868e+00
a6=1.37765724782677950e+02
t5=-1.19979948916939321e+02
