%chk=c2h6_023.chk
%mem=100MB

#p b3lyp/6-31+g(d,p) force nosym

c2h6 molecule

0 1
C1
C2 1 d1
H3 1 d2 2 a1
H4 1 d3 2 a2 3 t1
H5 1 d4 2 a3 3 t2
H6 2 d5 1 a4 3 t3
H7 2 d6 1 a5 6 t4
H8 2 d7 1 a6 6 t5


d1=1.54521705909321705e+00
a1=1.61616196597734159e+02
t1=1.07213027099243376e+02
d2=1.19180806885019419e+00
a2=9.69450900214820308e+01
t2=-1.66138696990705995e+02
d3=1.42685727730923140e+00
d4=1.08834429570035152e+00
a3=9.51988623757443975e+01
d5=1.08857023134427977e+00
a4=9.78066161382938191e+01
t3=1.79898005558650851e+02
d6=1.13459938781157876e+00
a5=9.79173590466024990e+01
t4=1.21463797062186856e+02
d7=1.07178386081716193e+00
a6=1.65257026204869874e+02
t5=-1.20000231779342258e+02
