%chk=c2h6_036.chk
%mem=100MB

#p b3lyp/6-31+g(d,p) force nosym

c2h6 molecule

0 1
C1
C2 1 d1
H3 1 d2 2 a1
H4 1 d3 2 a2 3 t1
H5 1 d4 2 a3 3 t2
H6 2 d5 1 a4 3 t3
H7 2 d6 1 a5 6 t4
H8 2 d7 1 a6 6 t5


d1=1.56496380530261514e+00
a1=1.50722701419397964e+02
t1=1.00905307881163282e+02
d2=1.08864500775329431e+00
a2=9.03187322801548191e+01
t2=-1.58646760534243526e+02
d3=1.06306642696207776e+00
d4=1.08668141485803038e+00
a3=9.07362760863634747e+01
d5=1.08806515453900410e+00
a4=9.26965648929059398e+01
t3=1.79796017925700596e+02
d6=1.09874882652805717e+00
a5=9.34160395444847467e+01
t4=1.20496865381976960e+02
d7=1.09764655191580229e+00
a6=1.54464265302164023e+02
t5=-1.19997021025472861e+02
