%chk=c2h6_051.chk
%mem=100MB

#p b3lyp/6-31+g(d,p) force nosym

c2h6 molecule

0 1
C1
C2 1 d1
H3 1 d2 2 a1
H4 1 d3 2 a2 3 t1
H5 1 d4 2 a3 3 t2
H6 2 d5 1 a4 3 t3
H7 2 d6 1 a5 6 t4
H8 2 d7 1 a6 6 t5


d1=1.54717400588019394e+00
a1=1.25760474166564364e+02
t1=1.07138926006387635e+02
d2=1.13205920227451462e+00
a2=9.92753108629259771e+01
t2=-1.48686926719712233e+02
d3=1.17886285300104077e+00
d4=1.07765409289244962e+00
a3=1.16341977242175787e+02
d5=1.11642226732064476e+00
a4=1.03646246027624827e+02
t3=1.80000000000000000e+02
d6=1.08998483938117730e+00
a5=1.10654834192883527e+02
t4=1.08780753476024884e+02
d7=1.06081091981837483e+00
a6=1.20025789717570106e+02
t5=-1.21427759307240422e+02
