%chk=c2h6_019.chk
%mem=100MB

#p b3lyp/6-31+g(d,p) force nosym

c2h6 molecule

0 1
C1
C2 1 d1
H3 1 d2 2 a1
H4 1 d3 2 a2 3 t1
H5 1 d4 2 a3 3 t2
H6 2 d5 1 a4 3 t3
H7 2 d6 1 a5 6 t4
H8 2 d7 1 a6 6 t5


d1=1.48462838639738015e+00
a1=1.78451212174682155e+02
t1=1.19592571517430770e+02
d2=1.10404674583491502e+00
a2=1.09586520466261391e+02
t2=-1.78590234942874247e+02
d3=1.19437082881231205e+00
d4=1.16434105266360777e+00
a3=1.08550432540123310e+02
d5=1.11469449612628546e+00
a4=1.08637985815599706e+02
t3=1.79997041104645348e+02
d6=1.12457300488040768e+00
a5=1.08639759394826172e+02
t4=1.20064491140446719e+02
d7=1.13587725647573778e+00
a6=1.78585201471977200e+02
t5=-1.19999999193645593e+02
