%chk=c2h6_043.chk
%mem=100MB

#p b3lyp/6-31+g(d,p) force nosym

c2h6 molecule

0 1
C1
C2 1 d1
H3 1 d2 2 a1
H4 1 d3 2 a2 3 t1
H5 1 d4 2 a3 3 t2
H6 2 d5 1 a4 3 t3
H7 2 d6 1 a5 6 t4
H8 2 d7 1 a6 6 t5


d1=1.56785032144350711e+00
a1=1.31657162909142102e+02
t1=1.04063762509691330e+02
d2=1.09478093594944115e+00
a2=9.16730030999824379e+01
t2=-1.50201771846326949e+02
d3=1.10693216746919121e+00
d4=1.09439002422123255e+00
a3=1.17657669060516980e+02
d5=1.09856501571376941e+00
a4=9.94832826084927007e+01
t3=1.79305743490013754e+02
d6=1.09143130933099464e+00
a5=1.05752691877708386e+02
t4=1.03410760016474711e+02
d7=1.08958023879901478e+00
a6=1.17724690770426193e+02
t5=-1.19963386060967977e+02
