%chk=c2h6_018.chk
%mem=100MB

#p b3lyp/6-31+g(d,p) force nosym

c2h6 molecule

0 1
C1
C2 1 d1
H3 1 d2 2 a1
H4 1 d3 2 a2 3 t1
H5 1 d4 2 a3 3 t2
H6 2 d5 1 a4 3 t3
H7 2 d6 1 a5 6 t4
H8 2 d7 1 a6 6 t5


d1=1.48538646044551825e+00
a1=1.78501692015713303e+02
t1=1.19630694490045840e+02
d2=1.10109929053292843e+00
a2=1.09625686190871349e+02
t2=-1.78628548639795952e+02
d3=1.18656349878926992e+00
d4=1.16555509701744620e+00
a3=1.08592703599086306e+02
d5=1.11938482369723546e+00
a4=1.08672511783403337e+02
t3=1.79997315805857255e+02
d6=1.12838578706192716e+00
a5=1.08674195657128294e+02
t4=1.20057493981364331e+02
d7=1.08674027402272411e+00
a6=1.78622379455085337e+02
t5=-1.19999998257109468e+02
