%chk=c2h6_041.chk
%mem=100MB

#p b3lyp/6-31+g(d,p) force nosym

c2h6 molecule

0 1
C1
C2 1 d1
H3 1 d2 2 a1
H4 1 d3 2 a2 3 t1
H5 1 d4 2 a3 3 t2
H6 2 d5 1 a4 3 t3
H7 2 d6 1 a5 6 t4
H8 2 d7 1 a6 6 t5


d1=1.56346701395632182e+00
a1=1.31616541356672855e+02
t1=1.04039589988965560e+02
d2=1.09423536277984557e+00
a2=9.16461206337534833e+01
t2=-1.50173493685103267e+02
d3=1.10234113587448390e+00
d4=1.09413698016167538e+00
a3=1.17643860755004269e+02
d5=1.09890474327063736e+00
a4=9.94635961619660804e+01
t3=1.79304927862752578e+02
d6=1.09155129862875722e+00
a5=1.05735554823752253e+02
t4=1.03404009618431246e+02
d7=1.09039572231625037e+00
a6=1.17680399510760751e+02
t5=-1.19962938947214226e+02
