%chk=c2h6_026.chk
%mem=100MB

#p b3lyp/6-31+g(d,p) force nosym

c2h6 molecule

0 1
C1
C2 1 d1
H3 1 d2 2 a1
H4 1 d3 2 a2 3 t1
H5 1 d4 2 a3 3 t2
H6 2 d5 1 a4 3 t3
H7 2 d6 1 a5 6 t4
H8 2 d7 1 a6 6 t5


d1=1.73631976647069197e+00
a1=1.49198393863407404e+02
t1=9.80935457707343090e+01
d2=1.09162274396867209e+00
a2=8.76325531060751075e+01
t2=-1.56963520129562227e+02
d3=1.10440019208757212e+00
d4=1.08514906530404165e+00
a3=8.53885451926779666e+01
d5=1.08729531365205223e+00
a4=8.98422433967105292e+01
t3=1.79824542021295883e+02
d6=1.09313357423157664e+00
a5=9.00372139959822846e+01
t4=1.22459356519321503e+02
d7=1.10330052427490788e+00
a6=1.55386136164076476e+02
t5=-1.20000499604384899e+02
