%chk=c2h6_031.chk
%mem=100MB

#p b3lyp/6-31+g(d,p) force nosym

c2h6 molecule

0 1
C1
C2 1 d1
H3 1 d2 2 a1
H4 1 d3 2 a2 3 t1
H5 1 d4 2 a3 3 t2
H6 2 d5 1 a4 3 t3
H7 2 d6 1 a5 6 t4
H8 2 d7 1 a6 6 t5


d1=1.72458664962584041e+00
a1=1.50065632216797951e+02
t1=9.87480149676498939e+01
d2=1.09087062283515857e+00
a2=8.82989641008879431e+01
t2=-1.57610415670547724e+02
d3=1.09247266018903288e+00
d4=1.08533346937734843e+00
a3=8.61172123190844445e+01
d5=1.08771225889922096e+00
a4=9.04186687965989506e+01
t3=1.79829267847285621e+02
d6=1.09277410568130851e+00
a5=9.06133149395587338e+01
t4=1.22369234885773054e+02
d7=1.10318553564247002e+00
a6=1.56051828721957094e+02
t5=-1.20000448586143037e+02
