%chk=c2h6_016.chk
%mem=100MB

#p b3lyp/6-31+g(d,p) force nosym

c2h6 molecule

0 1
C1
C2 1 d1
H3 1 d2 2 a1
H4 1 d3 2 a2 3 t1
H5 1 d4 2 a3 3 t2
H6 2 d5 1 a4 3 t3
H7 2 d6 1 a5 6 t4
H8 2 d7 1 a6 6 t5


d1=1.34358051991121608e+00
a1=1.09007117176242829e+02
t1=1.20000032101661517e+02
d2=1.12056197926129242e+00
a2=1.10006929258393882e+02
t2=-1.20000071156463434e+02
d3=1.13584099776148029e+00
d4=1.14539843208158643e+00
a3=1.09007014090552772e+02
d5=1.12098344850797260e+00
a4=1.09007024482195988e+02
t3=1.79999998254270849e+02
d6=1.14113689182261635e+00
a5=1.09006936870239599e+02
t4=1.20000026905956048e+02
d7=1.14484737056963959e+00
a6=1.09006917370127979e+02
t5=-1.20000020691435637e+02
