%chk=c2h6_024.chk
%mem=100MB

#p b3lyp/6-31+g(d,p) force nosym

c2h6 molecule

0 1
C1
C2 1 d1
H3 1 d2 2 a1
H4 1 d3 2 a2 3 t1
H5 1 d4 2 a3 3 t2
H6 2 d5 1 a4 3 t3
H7 2 d6 1 a5 6 t4
H8 2 d7 1 a6 6 t5


d1=1.54677356019699785e+00
a1=1.09016899132220672e+02
t1=1.20000030526695511e+02
d2=1.09416975143626916e+00
a2=1.10016654495236722e+02
t2=-1.20000157043236300e+02
d3=1.09424583669134590e+00
d4=1.09451905325089416e+00
a3=1.09016806091040891e+02
d5=1.09406450398035004e+00
a4=1.09016662454670524e+02
t3=1.79999998253781740e+02
d6=1.09420579939907325e+00
a5=1.09016606535267442e+02
t4=1.20000024140335995e+02
d7=1.09405431278582888e+00
a6=1.09016548330826311e+02
t5=-1.20000018988926627e+02
