%chk=c2h6_011.chk
%mem=100MB

#p b3lyp/6-31+g(d,p) force nosym

c2h6 molecule

0 1
C1
C2 1 d1
H3 1 d2 2 a1
H4 1 d3 2 a2 3 t1
H5 1 d4 2 a3 3 t2
H6 2 d5 1 a4 3 t3
H7 2 d6 1 a5 6 t4
H8 2 d7 1 a6 6 t5


d1=1.79884017548277297e+00
a1=1.08967554584859471e+02
t1=1.20000020953226681e+02
d2=1.21054713759057053e+00
a2=1.09966686130766647e+02
t2=-1.19999409187592136e+02
d3=1.24474953375123421e+00
d4=1.26158116895058958e+00
a3=1.08967477627383033e+02
d5=1.21272919532404977e+00
a4=1.08968236954774667e+02
t3=1.79999998256216514e+02
d6=1.25401069890776617e+00
a5=1.08968098060623731e+02
t4=1.20000017029327438e+02
d7=1.26146445113838257e+00
a6=1.08968061974585154e+02
t5=-1.20000014336191896e+02
