%chk=c2h6_030.chk
%mem=100MB

#p b3lyp/6-31+g(d,p) force nosym

c2h6 molecule

0 1
C1
C2 1 d1
H3 1 d2 2 a1
H4 1 d3 2 a2 3 t1
H5 1 d4 2 a3 3 t2
H6 2 d5 1 a4 3 t3
H7 2 d6 1 a5 6 t4
H8 2 d7 1 a6 6 t5


d1=1.54554022924336354e+00
a1=1.09030455057394207e+02
t1=1.20000030080344530e+02
d2=1.09151122048837146e+00
a2=1.10026161857919988e+02
t2=-1.19999043264441298e+02
d3=1.09422579490545968e+00
d4=1.09412042939483145e+00
a3=1.09030368835559898e+02
d5=1.09417416112640731e+00
a4=1.09030847733095499e+02
t3=1.79999998253750050e+02
d6=1.09508667123263970e+00
a5=1.09030820269564288e+02
t4=1.20000024148043209e+02
d7=1.09361022811953945e+00
a6=1.09029997257475344e+02
t5=-1.20000018961859979e+02
