%chk=c2h6_017.chk
%mem=100MB

#p b3lyp/6-31+g(d,p) force nosym

c2h6 molecule

0 1
C1
C2 1 d1
H3 1 d2 2 a1
H4 1 d3 2 a2 3 t1
H5 1 d4 2 a3 3 t2
H6 2 d5 1 a4 3 t3
H7 2 d6 1 a5 6 t4
H8 2 d7 1 a6 6 t5


d1=1.78377371865846834e+00
a1=1.08989724791367863e+02
t1=1.20000039255039141e+02
d2=1.16721921539501672e+00
a2=1.09989180829944459e+02
t2=-1.19999770076911531e+02
d3=1.17011619524124577e+00
d4=1.17170153941681443e+00
a3=1.08989635027870662e+02
d5=1.16688736079838318e+00
a4=1.08989986501750778e+02
t3=1.79999998255091612e+02
d6=1.17041684164320414e+00
a5=1.08989878059284720e+02
t4=1.20000033280986713e+02
d7=1.17097062921872630e+00
a6=1.08989841335555809e+02
t5=-1.20000028886506314e+02
