%chk=c2h6_026.chk
%mem=100MB

#p b3lyp/6-31+g(d,p) force nosym

c2h6 molecule

0 1
C1
C2 1 d1
H3 1 d2 2 a1
H4 1 d3 2 a2 3 t1
H5 1 d4 2 a3 3 t2
H6 2 d5 1 a4 3 t3
H7 2 d6 1 a5 6 t4
H8 2 d7 1 a6 6 t5


d1=1.54694147259596582e+00
a1=1.09016550684446372e+02
t1=1.20000030527867295e+02
d2=1.09443196694918798e+00
a2=1.10016405552407690e+02
t2=-1.20000184201351672e+02
d3=1.09432864639228944e+00
d4=1.09451190679926791e+00
a3=1.09016457483237076e+02
d5=1.09405289753312140e+00
a4=1.09016299045736531e+02
t3=1.79999998253783218e+02
d6=1.09421946387778113e+00
a5=1.09016243063825470e+02
t4=1.20000024141448776e+02
d7=1.09404674793038614e+00
a6=1.09016203005866018e+02
t5=-1.20000018991166741e+02
