%chk=c2h6_013.chk
%mem=100MB

#p b3lyp/6-31+g(d,p) force nosym

c2h6 molecule

0 1
C1
C2 1 d1
H3 1 d2 2 a1
H4 1 d3 2 a2 3 t1
H5 1 d4 2 a3 3 t2
H6 2 d5 1 a4 3 t3
H7 2 d6 1 a5 6 t4
H8 2 d7 1 a6 6 t5


d1=1.59913013161207962e+00
a1=1.08973969963540270e+02
t1=1.20000021840410724e+02
d2=1.18454547362081097e+00
a2=1.09973229137233858e+02
t2=-1.19999520948587872e+02
d3=1.21225007849423871e+00
d4=1.22598557848031797e+00
a3=1.08973890355286372e+02
d5=1.18624875101412752e+00
a4=1.08974522584353181e+02
t3=1.79999998255915671e+02
d6=1.21979866858856867e+00
a5=1.08974393397809166e+02
t4=1.20000018060399654e+02
d7=1.22584935089639369e+00
a6=1.08974364080070188e+02
t5=-1.20000014754165520e+02
