%chk=c2h6_014.chk
%mem=100MB

#p b3lyp/6-31+g(d,p) force nosym

c2h6 molecule

0 1
C1
C2 1 d1
H3 1 d2 2 a1
H4 1 d3 2 a2 3 t1
H5 1 d4 2 a3 3 t2
H6 2 d5 1 a4 3 t3
H7 2 d6 1 a5 6 t4
H8 2 d7 1 a6 6 t5


d1=1.81851562995692118e+00
a1=1.08968444655024712e+02
t1=1.20000020768245207e+02
d2=1.20750224093584402e+00
a2=1.09967594810326446e+02
t2=-1.19999424688332311e+02
d3=1.24083039920629767e+00
d4=1.25715524935373879e+00
a3=1.08968367673494171e+02
d5=1.20965579956199631e+00
a4=1.08969108857528667e+02
t3=1.79999998256168737e+02
d6=1.24981035274408114e+00
a5=1.08968971908802899e+02
t4=1.20000016876491046e+02
d7=1.25703741756328569e+00
a6=1.08968936579685987e+02
t5=-1.20000014155722923e+02
