%chk=c2h6_010.chk
%mem=100MB

#p b3lyp/6-31+g(d,p) force nosym

c2h6 molecule

0 1
C1
C2 1 d1
H3 1 d2 2 a1
H4 1 d3 2 a2 3 t1
H5 1 d4 2 a3 3 t2
H6 2 d5 1 a4 3 t3
H7 2 d6 1 a5 6 t4
H8 2 d7 1 a6 6 t5


d1=1.00000000000000000e+00
a1=1.08931416979604677e+02
t1=1.20000028463631722e+02
d2=1.33417252988758506e+00
a2=1.09929792968275336e+02
t2=-1.19998779844365529e+02
d3=1.40386972747947714e+00
d4=1.44127726654601229e+00
a3=1.08931340998745640e+02
d5=1.33751167560233908e+00
a4=1.08932836961858584e+02
t3=1.79999998258156182e+02
d6=1.42454832338272763e+00
a5=1.08932619081792112e+02
t4=1.20000023234614872e+02
d7=1.44120577719746423e+00
a6=1.08932552264090390e+02
t5=-1.20000021663385340e+02
