%chk=c2h6_040.chk
%mem=100MB

#p b3lyp/6-31+g(d,p) force nosym

c2h6 molecule

0 1
C1
C2 1 d1
H3 1 d2 2 a1
H4 1 d3 2 a2 3 t1
H5 1 d4 2 a3 3 t2
H6 2 d5 1 a4 3 t3
H7 2 d6 1 a5 6 t4
H8 2 d7 1 a6 6 t5


d1=1.53910416652397153e+00
a1=1.31665164700825557e+02
t1=1.04016780764054673e+02
d2=1.09067164567771591e+00
a2=9.16283064759646493e+01
t2=-1.50190088442614581e+02
d3=1.09059659952488386e+00
d4=1.09351186047331628e+00
a3=1.17541638327334056e+02
d5=1.09776503104968848e+00
a4=9.94299803226860206e+01
t3=1.79306251690032411e+02
d6=1.09182679602454336e+00
a5=1.05683388968116219e+02
t4=1.03461496447040460e+02
d7=1.08979769133571192e+00
a6=1.17789974657248820e+02
t5=-1.19962815987383678e+02
