%chk=c2h6_037.chk
%mem=100MB

#p b3lyp/6-31+g(d,p) force nosym

c2h6 molecule

0 1
C1
C2 1 d1
H3 1 d2 2 a1
H4 1 d3 2 a2 3 t1
H5 1 d4 2 a3 3 t2
H6 2 d5 1 a4 3 t3
H7 2 d6 1 a5 6 t4
H8 2 d7 1 a6 6 t5


d1=1.47973647563966226e+00
a1=1.48927140036258095e+02
t1=1.02446545948344124e+02
d2=1.08954424030592500e+00
a2=9.15801522224127069e+01
t2=-1.58260592560241292e+02
d3=1.04627442050943853e+00
d4=1.08715975464721737e+00
a3=9.63174406362695947e+01
d5=1.08832892266368964e+00
a4=9.47146997835355080e+01
t3=1.79722247678913504e+02
d6=1.10129352948928361e+00
a5=9.63499723138729962e+01
t4=1.17535450039063448e+02
d7=1.08771075683295471e+00
a6=1.49436210490429289e+02
t5=-1.19991226820532532e+02
