%chk=c2h6_035.chk
%mem=100MB

#p b3lyp/6-31+g(d,p) force nosym

c2h6 molecule

0 1
C1
C2 1 d1
H3 1 d2 2 a1
H4 1 d3 2 a2 3 t1
H5 1 d4 2 a3 3 t2
H6 2 d5 1 a4 3 t3
H7 2 d6 1 a5 6 t4
H8 2 d7 1 a6 6 t5


d1=1.62329976708294632e+00
a1=1.50812760266723018e+02
t1=9.99737918292688903e+01
d2=1.08867250871736854e+00
a2=8.94765308323412256e+01
t2=-1.58385149774632566e+02
d3=1.07332204975045409e+00
d4=1.08589745004822635e+00
a3=8.83653033991674590e+01
d5=1.08781584043057089e+00
a4=9.16484263360261053e+01
t3=1.79818619533928796e+02
d6=1.09658158349600443e+00
a5=9.20520390459123661e+01
t4=1.21573376423097557e+02
d7=1.10158911844665197e+00
a6=1.55792421429038598e+02
t5=-1.19999052966850087e+02
