%chk=c2h6_054.chk
%mem=100MB

#p b3lyp/6-31+g(d,p) force nosym

c2h6 molecule

0 1
C1
C2 1 d1
H3 1 d2 2 a1
H4 1 d3 2 a2 3 t1
H5 1 d4 2 a3 3 t2
H6 2 d5 1 a4 3 t3
H7 2 d6 1 a5 6 t4
H8 2 d7 1 a6 6 t5


d1=1.54159614207734741e+00
a1=1.10491578999507325e+02
t1=1.07589216034421767e+02
d2=1.09559621743550206e+00
a2=1.05337198259773103e+02
t2=-1.41767225994471318e+02
d3=1.10528544245885318e+00
d4=1.08861242571869066e+00
a3=1.13538843362426832e+02
d5=1.09830062137047246e+00
a4=1.06436787029433404e+02
t3=1.78913815547959729e+02
d6=1.09621559328472884e+00
a5=1.15091403244445658e+02
t4=1.14224807564570753e+02
d7=1.09104625986924320e+00
a6=1.14488457938872088e+02
t5=-1.23333679535697854e+02
