%chk=c2h6_015.chk
%mem=100MB

#p b3lyp/6-31+g(d,p) force nosym

c2h6 molecule

0 1
C1
C2 1 d1
H3 1 d2 2 a1
H4 1 d3 2 a2 3 t1
H5 1 d4 2 a3 3 t2
H6 2 d5 1 a4 3 t3
H7 2 d6 1 a5 6 t4
H8 2 d7 1 a6 6 t5


d1=1.50382330587632551e+00
a1=1.78911253416115301e+02
t1=1.19936852876948805e+02
d2=1.00000000000000000e+00
a2=1.09938624427470131e+02
t2=-1.78936277382188933e+02
d3=1.00000000000000000e+00
d4=1.18790040034048472e+00
a3=1.08931317778033289e+02
d5=1.13001517418139197e+00
a4=1.08946988775051437e+02
t3=1.79999554148915024e+02
d6=1.11162573814057430e+00
a5=1.08947473520636009e+02
t4=1.20006657405538704e+02
d7=1.00000000000000000e+00
a6=1.78929507881493237e+02
t5=-1.19999998255531921e+02
