%chk=c2h6_024.chk
%mem=100MB

#p b3lyp/6-31+g(d,p) force nosym

c2h6 molecule

0 1
C1
C2 1 d1
H3 1 d2 2 a1
H4 1 d3 2 a2 3 t1
H5 1 d4 2 a3 3 t2
H6 2 d5 1 a4 3 t3
H7 2 d6 1 a5 6 t4
H8 2 d7 1 a6 6 t5


d1=1.61527806744971292e+00
a1=1.55221725782389001e+02
t1=1.02514067136495953e+02
d2=1.16326834866112772e+00
a2=9.21467691122176547e+01
t2=-1.61411841984906431e+02
d3=1.35871428354272350e+00
d4=1.10256308910748091e+00
a3=9.01382054679206277e+01
d5=1.08658120613339459e+00
a4=9.36995534456872718e+01
t3=1.79860245464714183e+02
d6=1.10641603653998577e+00
a5=9.38527576499261897e+01
t4=1.21984705576453052e+02
d7=1.09146351977974265e+00
a6=1.60182957280345562e+02
t5=-1.20000366937084436e+02
