%chk=c2h6_046.chk
%mem=100MB

#p b3lyp/6-31+g(d,p) force nosym

c2h6 molecule

0 1
C1
C2 1 d1
H3 1 d2 2 a1
H4 1 d3 2 a2 3 t1
H5 1 d4 2 a3 3 t2
H6 2 d5 1 a4 3 t3
H7 2 d6 1 a5 6 t4
H8 2 d7 1 a6 6 t5


d1=1.56918020937977465e+00
a1=1.31980349369008451e+02
t1=1.04248486981286590e+02
d2=1.09852677610066052e+00
a2=9.19138703301913012e+01
t2=-1.50426928890767101e+02
d3=1.11360637381912531e+00
d4=1.09278846894177861e+00
a3=1.17654026128103808e+02
d5=1.09992702614364157e+00
a4=9.96300600615955574e+01
t3=1.79322191646389570e+02
d6=1.09101779009569233e+00
a5=1.05866194536803178e+02
t4=1.03555691343067153e+02
d7=1.08547934950399649e+00
a6=1.18191275353022107e+02
t5=-1.19976524123573242e+02
