%chk=c2h6_028.chk
%mem=100MB

#p b3lyp/6-31+g(d,p) force nosym

c2h6 molecule

0 1
C1
C2 1 d1
H3 1 d2 2 a1
H4 1 d3 2 a2 3 t1
H5 1 d4 2 a3 3 t2
H6 2 d5 1 a4 3 t3
H7 2 d6 1 a5 6 t4
H8 2 d7 1 a6 6 t5


d1=1.73444579265856369e+00
a1=1.50212279142064034e+02
t1=9.88410241345363971e+01
d2=1.09340595543685559e+00
a2=8.83955864935970936e+01
t2=-1.57713989343141151e+02
d3=1.09929374125159129e+00
d4=1.08535109241502847e+00
a3=8.61971016554830385e+01
d5=1.08758676013238764e+00
a4=9.04965396691646902e+01
t3=1.79830475896896900e+02
d6=1.09241216999679369e+00
a5=9.06855337532284551e+01
t4=1.22373324341870912e+02
d7=1.10217895546053368e+00
a6=1.56186795103986469e+02
t5=-1.20000475894511325e+02
