%chk=c2h6_010.chk
%mem=100MB

#p b3lyp/6-31+g(d,p) force nosym

c2h6 molecule

0 1
C1
C2 1 d1
H3 1 d2 2 a1
H4 1 d3 2 a2 3 t1
H5 1 d4 2 a3 3 t2
H6 2 d5 1 a4 3 t3
H7 2 d6 1 a5 6 t4
H8 2 d7 1 a6 6 t5


d1=1.70703283424558472e+00
a1=1.78667770336781928e+02
t1=1.19751186087046392e+02
d2=1.21222629665839032e+00
a2=1.09746262029848197e+02
t2=-1.78749727705113713e+02
d3=1.00000000000000000e+00
d4=1.15233239491268602e+00
a3=1.08724548824973539e+02
d5=1.08076018040323474e+00
a4=1.08776635087266442e+02
t3=1.79998225547053863e+02
d6=1.09991820974403565e+00
a5=1.08777146934242836e+02
t4=1.20044324905427914e+02
d7=1.34570833346349827e+00
a6=1.78753849974830700e+02
t5=-1.19999998255703815e+02
