%chk=c2h6_042.chk
%mem=100MB

#p b3lyp/6-31+g(d,p) force nosym

c2h6 molecule

0 1
C1
C2 1 d1
H3 1 d2 2 a1
H4 1 d3 2 a2 3 t1
H5 1 d4 2 a3 3 t2
H6 2 d5 1 a4 3 t3
H7 2 d6 1 a5 6 t4
H8 2 d7 1 a6 6 t5


d1=1.56746140880859008e+00
a1=1.31632875912907565e+02
t1=1.04054951716867492e+02
d2=1.09447285117557747e+00
a2=9.16622572739735659e+01
t2=-1.50186730683335270e+02
d3=1.10645534372203591e+00
d4=1.09449731527625205e+00
a3=1.17662701067820365e+02
d5=1.09836948877691265e+00
a4=9.94777386102873464e+01
t3=1.79305181934458830e+02
d6=1.09142851057220680e+00
a5=1.05750400207830310e+02
t4=1.03401061403062243e+02
d7=1.08986171888362082e+00
a6=1.17691687993197192e+02
t5=-1.19963154965379459e+02
