%chk=c2h6_003.chk
%mem=100MB

#p b3lyp/6-31+g(d,p) force nosym

c2h6 molecule

0 1
C1
C2 1 d1
H3 1 d2 2 a1
H4 1 d3 2 a2 3 t1
H5 1 d4 2 a3 3 t2
H6 2 d5 1 a4 3 t3
H7 2 d6 1 a5 6 t4
H8 2 d7 1 a6 6 t5


d1=3.49292405979549070e+00
a1=1.78993615585596189e+02
t1=1.19996413348387151e+02
d2=1.13280099215651497e+00
a2=1.09997664749460839e+02
t2=-1.78996188200913650e+02
d3=1.20835888129992575e+00
d4=1.17237643381607604e+00
a3=1.08997059120210380e+02
d5=1.11182505441869672e+00
a4=1.08998383825112654e+02
t3=1.79999975565390486e+02
d6=1.12086465451965656e+00
a5=1.08998266888052768e+02
t4=1.19999787069831257e+02
d7=1.15952630979651161e+00
a6=1.78994339897235790e+02
t5=-1.19999998254670743e+02
