%chk=c2h6_002.chk
%mem=100MB

#p b3lyp/6-31+g(d,p) force nosym

c2h6 molecule

0 1
C1
C2 1 d1
H3 1 d2 2 a1
H4 1 d3 2 a2 3 t1
H5 1 d4 2 a3 3 t2
H6 2 d5 1 a4 3 t3
H7 2 d6 1 a5 6 t4
H8 2 d7 1 a6 6 t5


d1=3.51465588718151878e+00
a1=1.78996589626641594e+02
t1=1.19998247689430997e+02
d2=1.14754084029660364e+00
a2=1.09999298377640699e+02
t2=-1.78998015560640482e+02
d3=1.24501952923809478e+00
d4=1.20658044039756351e+00
a3=1.08999736455282942e+02
d5=1.15869021260769633e+00
a4=1.09000335103216386e+02
t3=1.80000000000000000e+02
d6=1.19437492280804691e+00
a5=1.09000155334303429e+02
t4=1.19999439749310113e+02
d7=1.13760550999843124e+00
a6=1.78996416839045651e+02
t5=-1.19999998254670743e+02
