%chk=c2h6_004.chk
%mem=100MB

#p b3lyp/6-31+g(d,p) force nosym

c2h6 molecule

0 1
C1
C2 1 d1
H3 1 d2 2 a1
H4 1 d3 2 a2 3 t1
H5 1 d4 2 a3 3 t2
H6 2 d5 1 a4 3 t3
H7 2 d6 1 a5 6 t4
H8 2 d7 1 a6 6 t5


d1=3.46816867381662419e+00
a1=1.78990667724489583e+02
t1=1.19994301499992233e+02
d2=1.13223407492035766e+00
a2=1.09995568609029192e+02
t2=-1.78994069371201732e+02
d3=1.18624910908979286e+00
d4=1.16254986838935026e+00
a3=1.08994540610099747e+02
d5=1.10728971652943864e+00
a4=1.08996390659106879e+02
t3=1.79999958112097971e+02
d6=1.10650275120367292e+00
a5=1.08996292920668765e+02
t4=1.20000190240888472e+02
d7=1.16784109592681795e+00
a6=1.78992208850219100e+02
t5=-1.19999998254670743e+02
