%chk=c2h6_008.chk
%mem=100MB

#p b3lyp/6-31+g(d,p) force nosym

c2h6 molecule

0 1
C1
C2 1 d1
H3 1 d2 2 a1
H4 1 d3 2 a2 3 t1
H5 1 d4 2 a3 3 t2
H6 2 d5 1 a4 3 t3
H7 2 d6 1 a5 6 t4
H8 2 d7 1 a6 6 t5


d1=1.94271044566077955e+00
a1=1.78822803682886530e+02
t1=1.19867817127962184e+02
d2=1.17690296818399309e+00
a2=1.09865768411727757e+02
t2=-1.78866940404440243e+02
d3=1.00000000000000000e+00
d4=1.15976396832111006e+00
a3=1.08854180910891330e+02
d5=1.09191085249360564e+00
a4=1.08882062778918581e+02
t3=1.79999060854545547e+02
d6=1.10206513506788273e+00
a5=1.08882272102079085e+02
t4=1.20023256391215170e+02
d7=1.26240374329629113e+00
a6=1.78868366185323453e+02
t5=-1.19999998255146537e+02
