%chk=c2h6_049.chk
%mem=100MB

#p b3lyp/6-31+g(d,p) force nosym

c2h6 molecule

0 1
C1
C2 1 d1
H3 1 d2 2 a1
H4 1 d3 2 a2 3 t1
H5 1 d4 2 a3 3 t2
H6 2 d5 1 a4 3 t3
H7 2 d6 1 a5 6 t4
H8 2 d7 1 a6 6 t5


d1=1.56537367822676687e+00
a1=1.31863673372807511e+02
t1=1.05196786561574598e+02
d2=1.11529478889535105e+00
a2=9.37412265451968523e+01
t2=-1.50756001157094857e+02
d3=1.14187882701292787e+00
d4=1.08586094596220906e+00
a3=1.17367229920835683e+02
d5=1.10814231779826278e+00
a4=1.00653016537708083e+02
t3=1.79578628844302841e+02
d6=1.08969283250816096e+00
a5=1.06914204792452267e+02
t4=1.04827114715827051e+02
d7=1.07061837881267485e+00
a6=1.19803576628952300e+02
t5=-1.20247185514862011e+02
