%chk=c2h6_002.chk
%mem=100MB

#p b3lyp/6-31+g(d,p) force nosym

c2h6 molecule

0 1
C1
C2 1 d1
H3 1 d2 2 a1
H4 1 d3 2 a2 3 t1
H5 1 d4 2 a3 3 t2
H6 2 d5 1 a4 3 t3
H7 2 d6 1 a5 6 t4
H8 2 d7 1 a6 6 t5


d1=3.63200775506607032e+00
a1=1.09001232202451902e+02
t1=1.20000033161255786e+02
d2=1.15037542647739000e+00
a2=1.10001064650843716e+02
t2=-1.20000003490658500e+02
d3=1.13881703366463616e+00
d4=1.12570024803912894e+00
a3=1.09001165879940331e+02
d5=1.15018645406533748e+00
a4=1.09001235693110416e+02
t3=1.79999998254670743e+02
d6=1.13919497848874096e+00
a5=1.09001162389281831e+02
t4=1.20000029670597286e+02
d7=1.12456641356681430e+00
a6=1.09001167625269588e+02
t5=-1.20000019198621771e+02
