%chk=c2h6_037.chk
%mem=100MB

#p b3lyp/6-31+g(d,p) force nosym

c2h6 molecule

0 1
C1
C2 1 d1
H3 1 d2 2 a1
H4 1 d3 2 a2 3 t1
H5 1 d4 2 a3 3 t2
H6 2 d5 1 a4 3 t3
H7 2 d6 1 a5 6 t4
H8 2 d7 1 a6 6 t5


d1=1.53077363742891137e+00
a1=1.11331131060044726e+02
t1=1.20000735359201258e+02
d2=1.09531519633688523e+00
a2=1.11631854673023923e+02
t2=-1.19807689268605415e+02
d3=1.09471043318468264e+00
d4=1.09593389579354938e+00
a3=1.11331626795522595e+02
d5=1.09537495197010193e+00
a4=1.11438896443227222e+02
t3=1.79999998249473975e+02
d6=1.09429773328261915e+00
a5=1.11442121218154256e+02
t4=1.20000062982871739e+02
d7=1.09575373361984574e+00
a6=1.11311772736046606e+02
t5=-1.19999946563619034e+02
