%chk=c2h6_003.chk
%mem=100MB

#p b3lyp/6-31+g(d,p) force nosym

c2h6 molecule

0 1
C1
C2 1 d1
H3 1 d2 2 a1
H4 1 d3 2 a2 3 t1
H5 1 d4 2 a3 3 t2
H6 2 d5 1 a4 3 t3
H7 2 d6 1 a5 6 t4
H8 2 d7 1 a6 6 t5


d1=3.59137868647480074e+00
a1=1.09000691150383787e+02
t1=1.20000020943951029e+02
d2=1.08688069602777770e+00
a2=1.10000506145483072e+02
t2=-1.19999987782695229e+02
d3=1.08628270311406405e+00
d4=1.08563809668401645e+00
a3=1.09000616101225958e+02
d5=1.08650275120367290e+00
a4=1.09000705113017816e+02
t3=1.79999998254670743e+02
d6=1.08552681346585445e+00
a5=1.09000628318530715e+02
t4=1.20000017453292529e+02
d7=1.08544912427196394e+00
a6=1.09000626573201473e+02
t5=-1.20000013962634014e+02
