%chk=c2h6_033.chk
%mem=100MB

#p b3lyp/6-31+g(d,p) force nosym

c2h6 molecule

0 1
C1
C2 1 d1
H3 1 d2 2 a1
H4 1 d3 2 a2 3 t1
H5 1 d4 2 a3 3 t2
H6 2 d5 1 a4 3 t3
H7 2 d6 1 a5 6 t4
H8 2 d7 1 a6 6 t5


d1=1.52532257586934938e+00
a1=1.09978282163263302e+02
t1=1.20000293126352986e+02
d2=1.08806186160799512e+00
a2=1.10688059534785424e+02
t2=-1.19920319549386775e+02
d3=1.08655228106637836e+00
d4=1.09676065405180889e+00
a3=1.09978441681222350e+02
d5=1.09365789045686657e+00
a4=1.10022892938417641e+02
t3=1.79999998251937512e+02
d6=1.08472402833708603e+00
a5=1.10024218546422986e+02
t4=1.20000032448547174e+02
d7=1.09777624091234616e+00
a6=1.09970073681472883e+02
t5=-1.20000003021873908e+02
