%chk=c2h6_025.chk
%mem=100MB

#p b3lyp/6-31+g(d,p) force nosym

c2h6 molecule

0 1
C1
C2 1 d1
H3 1 d2 2 a1
H4 1 d3 2 a2 3 t1
H5 1 d4 2 a3 3 t2
H6 2 d5 1 a4 3 t3
H7 2 d6 1 a5 6 t4
H8 2 d7 1 a6 6 t5


d1=1.54647641004231251e+00
a1=1.09018395869369741e+02
t1=1.20000030529128651e+02
d2=1.09382014108971548e+00
a2=1.10017706623269817e+02
t2=-1.20000034839960591e+02
d3=1.09429393370132821e+00
d4=1.09449435754526325e+00
a3=1.09018303533819363e+02
d5=1.09407279939051238e+00
a4=1.09018227120082997e+02
t3=1.79999998253777903e+02
d6=1.09416332096719504e+00
a5=1.09018175750606005e+02
t4=1.20000024142450044e+02
d7=1.09403018742909852e+00
a6=1.09018032135672101e+02
t5=-1.20000018986626642e+02
