%chk=c2h6_007.chk
%mem=100MB

#p b3lyp/6-31+g(d,p) force nosym

c2h6 molecule

0 1
C1
C2 1 d1
H3 1 d2 2 a1
H4 1 d3 2 a2 3 t1
H5 1 d4 2 a3 3 t2
H6 2 d5 1 a4 3 t3
H7 2 d6 1 a5 6 t4
H8 2 d7 1 a6 6 t5


d1=3.50854422282850109e+00
a1=1.08999548358418053e+02
t1=1.20000020429355018e+02
d2=1.09082031616721165e+00
a2=1.09999338931768918e+02
t2=-1.19999966675786283e+02
d3=1.09081895839418830e+00
d4=1.09042972275239425e+00
a3=1.08999472443026150e+02
d5=1.09046140783565493e+00
a4=1.08999582210088903e+02
t3=1.79999998254670743e+02
d6=1.09036626011331861e+00
a5=1.08999507512569110e+02
t4=1.20000016938696518e+02
d7=1.09033454028965449e+00
a6=1.08999502979857510e+02
t5=-1.20000012744761861e+02
