%chk=c2h6_022.chk
%mem=100MB

#p b3lyp/6-31+g(d,p) force nosym

c2h6 molecule

0 1
C1
C2 1 d1
H3 1 d2 2 a1
H4 1 d3 2 a2 3 t1
H5 1 d4 2 a3 3 t2
H6 2 d5 1 a4 3 t3
H7 2 d6 1 a5 6 t4
H8 2 d7 1 a6 6 t5


d1=1.54753485095447729e+00
a1=1.09016340518681830e+02
t1=1.20000030507340583e+02
d2=1.09497205085477844e+00
a2=1.10016266514259513e+02
t2=-1.20000205149587643e+02
d3=1.09420581491894486e+00
d4=1.09400434626788323e+00
a3=1.09016247371649612e+02
d5=1.09464037448792806e+00
a4=1.09016076360670951e+02
t3=1.79999998253782195e+02
d6=1.09381705487279124e+00
a5=1.09016020452606696e+02
t4=1.20000024122929347e+02
d7=1.09353922916781654e+00
a6=1.09015993119518228e+02
t5=-1.20000018974658843e+02
