%chk=c2h6_034.chk
%mem=100MB

#p b3lyp/6-31+g(d,p) force nosym

c2h6 molecule

0 1
C1
C2 1 d1
H3 1 d2 2 a1
H4 1 d3 2 a2 3 t1
H5 1 d4 2 a3 3 t2
H6 2 d5 1 a4 3 t3
H7 2 d6 1 a5 6 t4
H8 2 d7 1 a6 6 t5


d1=1.53797191404805811e+00
a1=1.09183304683726718e+02
t1=1.20000067380572588e+02
d2=1.08938107257837768e+00
a2=1.10132982848985762e+02
t2=-1.19986371872801939e+02
d3=1.09104693015937415e+00
d4=1.09541382239733465e+00
a3=1.09183261135974320e+02
d5=1.09448794032974472e+00
a4=1.09190829010012393e+02
t3=1.79999998253447160e+02
d6=1.09043752924578863e+00
a5=1.09191023301309826e+02
t4=1.20000024434038409e+02
d7=1.09580928346126649e+00
a6=1.09181609832578744e+02
t5=-1.20000019594883270e+02
